*KEYWORD
*PARAMETER
rtbumper,3,rtroof,2,rtrailb,2,rtrailf,5
rtgrill,1,rthood,1
*CONTROL_TERMINATION
5.000E-02,0,0.000E+00,0.000E+00,0.000E+00
*DATABASE_RWFORC
0.100E-04,2
*DATABASE_NODOUT
0.100E-03,2
*DATABASE_BINARY_D3PLOT
0.100E-02,0
*DATABASE_BINARY_RUNRSF
0.100E+04
$
$ DEFINITION OF MATERIAL     8
$
*MAT_RIGID
8,7.800E-08,2.000E+05,0.300,0.000E+00,0.000E+00,0.000E+00,          
1.00,7.00,7.00
0.000E+00
*HOURGLASS
8,0,0.000E+00,0,0.000E+00,0.000E+00
*SECTION_SHELL
8,2,0.000E+00,0.000E+00,0.000E+00,0.000E+00,0
0.000E+00,0.000E+00,0.000E+00,0.000E+00,0.000E+00
*PART
material type # 20 (Rigid)                                                      
8,8,8,0,8,0
$
$ NODES
$
*NODE
1,0.000000000E+00,0.000000000E+00,0.000000000E+00,0,0
2,0.000000000E+00,0.000000000E+00,68.9467773,0,0
3,0.000000000E+00,0.000000000E+00,137.893555,0,0
4,0.000000000E+00,174.625000,0.000000000E+00,0,0
5,0.000000000E+00,174.625000,42.5000000,0,0
6,0.000000000E+00,174.625000,85.0000000,0,0
7,56.2593498,0.000000000E+00,0.000000000E+00,0,0
8,56.2593498,0.000000000E+00,68.9467773,0,0
9,56.2593498,0.000000000E+00,137.893555,0,0
10,112.518700,0.000000000E+00,0.000000000E+00,0,0
11,112.518700,0.000000000E+00,68.9467773,0,0
12,112.518700,0.000000000E+00,137.893555,0,0
13,56.2593498,174.625000,0.000000000E+00,0,0
14,112.518700,174.625000,0.000000000E+00,0,0
15,0.000000000E+00,0.000000000E+00,206.840332,0,0
16,0.000000000E+00,174.625000,206.840332,0,0
17,56.2593498,0.000000000E+00,206.840332,0,0
18,112.518700,0.000000000E+00,206.840332,0,0
19,56.2593498,174.625000,206.840332,0,0
20,112.518700,174.625000,206.840332,0,0
$ ... 1553 like lines cut
$
$ ELEMENT CARDS FOR SHELL ELEMENTS
$
*ELEMENT_SHELL_THICKNESS
1,2,1,4,5,2
0.000000E+00,0.000000E+00,0.000000E+00,0.000000E+00
2,2,2,5,6,3
0.000000E+00,0.000000E+00,0.000000E+00,0.000000E+00
3,2,1,2,8,7
0.000000E+00,0.000000E+00,0.000000E+00,0.000000E+00
4,2,7,8,11,10
0.000000E+00,0.000000E+00,0.000000E+00,0.000000E+00
5,2,2,3,9,8
0.000000E+00,0.000000E+00,0.000000E+00,0.000000E+00
6,2,8,9,12,11
0.000000E+00,0.000000E+00,0.000000E+00,0.000000E+00
7,2,1,7,13,4
0.000000E+00,0.000000E+00,0.000000E+00,0.000000E+00
8,2,7,10,14,13
0.000000E+00,0.000000E+00,0.000000E+00,0.000000E+00
9,2,3,6,16,15
0.000000E+00,0.000000E+00,0.000000E+00,0.000000E+00
10,2,3,15,17,9
0.000000E+00,0.000000E+00,0.000000E+00,0.000000E+00
$ ... 3048 like lines cut
$
$ NODAL TIME HISTORY BLOCKS 
$
*DATABASE_HISTORY_NODE
184,444
$
$ RIGID WALL CARDS
$
*SET_NODE_LIST
1,0.,0.,0.,0.
1,4,21,24,37,40,43,46
49,52,85,88,101,7,13,27
28,55,56,57,58,59,60,91
92,104,10,14,29,30,61,62
63,64,65,66,93,94,105,115
209,118,212,121,215,124,218,127
262,324,325,358,359,360,361,362
363,460,461,221,244,263,326,327
364,365,366,367,368,369,462,463
494,247,264,328,329,370,371,372
373,374,375,464,465,495,250,265
330,331,376,377,378,379,380,381
466,467,496,253,266,332,333,382
383,384,385,386,387,468,469,497
256,267,334,335,388,389,390,391
392,393,470,471,498,259,268,336
337,394,395,396,397,398,399,472
473,499,557,560,569,570,579,580
581,582,583,584,609,610,619
*RIGIDWALL_PLANAR
1,0,0
0.000E+00,0.000E+00,0.000E+00,0.000E+00,0.000E+00,1.00,0.200,0.000E+00
$
$ INITIAL CONDITIONS 
$
*INITIAL_VELOCITY_NODE
1,-1.564E+04,0.000E+00,0.000E+00,.0,.0,.0
2,-1.564E+04,0.000E+00,0.000E+00,.0,.0,.0
3,-1.564E+04,0.000E+00,0.000E+00,.0,.0,.0
4,-1.564E+04,0.000E+00,0.000E+00,.0,.0,.0
5,-1.564E+04,0.000E+00,0.000E+00,.0,.0,.0
6,-1.564E+04,0.000E+00,0.000E+00,.0,.0,.0
7,-1.564E+04,0.000E+00,0.000E+00,.0,.0,.0
8,-1.564E+04,0.000E+00,0.000E+00,.0,.0,.0
9,-1.564E+04,0.000E+00,0.000E+00,.0,.0,.0
10,-1.564E+04,0.000E+00,0.000E+00,.0,.0,.0
11,-1.564E+04,0.000E+00,0.000E+00,.0,.0,.0
12,-1.564E+04,0.000E+00,0.000E+00,.0,.0,.0
13,-1.564E+04,0.000E+00,0.000E+00,.0,.0,.0
14,-1.564E+04,0.000E+00,0.000E+00,.0,.0,.0
15,-1.564E+04,0.000E+00,0.000E+00,.0,.0,.0
16,-1.564E+04,0.000E+00,0.000E+00,.0,.0,.0
17,-1.564E+04,0.000E+00,0.000E+00,.0,.0,.0
18,-1.564E+04,0.000E+00,0.000E+00,.0,.0,.0
19,-1.564E+04,0.000E+00,0.000E+00,.0,.0,.0
20,-1.564E+04,0.000E+00,0.000E+00,.0,.0,.0
$ ... 738 like lines cut
$
$ Node set 2       
$
*SET_NODE_LIST
2,0.,0.,0.,0.
18,20,35,36,79,80,81,82
83,84,99,100,108,135,138,160
163,178,181,184,187,190,193,200
203,206,136,139,161,164,179,182
185,188,191,194,201,204,207,137
140,162,165,180,183,186,189,192
195,202,205,208,15,17,16,19
31,33,32,34,67,73,68,74
69,75,70,76,71,77,72,78
95,97,96,98,106,107,1,4
21,24,37,40,43,46,49,52
85,88,101,2,5,22,25,38
41,44,47,50,53,86,89,102
3,6,23,26,39,42,45,48
51,54,87,90,103,7,10,13
14,27,29,28,30,55,61,56
62,57,63,58,64,59,65,60
66,91,93,92,94,104,105,681
683,685,687,689,691,682,684,686
$ ... 9 like lines cut
$
$ Node set 3       
$
*SET_NODE_LIST
3,0.,0.,0.,0.
184,444
*CONSTRAINED_generalized_weld_spot
4

*set_node_list
4
474,751
*CONSTRAINED_generalized_weld_spot
5

*set_node_list
5
703,338
*CONSTRAINED_generalized_weld_spot
6

*set_node_list
6
186,707
$
$ SLIDING INTERFACE DEFINITIONS 
$
$
$ TrueGrid Sliding Interface #    2
$
*CONTACT_automatic_SINGLE_SURFACE_TITLE
1,TrueGrid Sliding Interface #          2                               
1,0,2,0,,,0,0
0.,0.,0.,0.,0.,0,0.,0.
0.,0.,0.,0.,0.,0.,0.,0.
0,0.,0,0.,0.,0,0,0
0.,0,0,0
*set_part_list
1
1,2,3,4
*RIGIDWALL_GEOMETRIC_CYLINDER
2,
-203,660,1500,-203,660,1600
177
$
$ NODAL TIME HISTORY BLOCKS 
$
*DATABASE_HISTORY_NODE
167,432
$
$ DEFINITION OF MATERIAL     1
$
*MAT_PLASTIC_KINEMATIC
1,1.000E-07,2.000E+05,0.300,400.,0.000E+00,0.000E+00
0.000E+00,0.000E+00,0.000E+00
*HOURGLASS
1,0,0.000E+00,0,0.000E+00,0.000E+00
*SECTION_SHELL
1,2,0.000E+00,0.000E+00,0.000E+00,0.000E+00,0
2.00,2.00,2.00,2.00,0.000E+00
*PART
material type # 3 (Kinematic/Isotropic Elastic-Plastic)                         
1,1,1,0,1,0
$
$ DEFINITION OF MATERIAL     2
$
*MAT_PLASTIC_KINEMATIC
2,7.800E-08,2.000E+05,0.300,400.,0.000E+00,0.000E+00
0.000E+00,0.000E+00,0.000E+00
*HOURGLASS
2,0,0.000E+00,0,0.000E+00,0.000E+00
*SECTION_SHELL
2,2,0.000E+00,0.000E+00,0.000E+00,0.000E+00,0
&tbumper,&tbumper,&tbumper,&tbumper,0.000E+00
*PART
material type # 3 (Kinematic/Isotropic Elastic-Plastic)                         
2,2,2,0,2,0
$
$ DEFINITION OF MATERIAL     3
$
*MAT_PLASTIC_KINEMATIC
3,7.800E-08,2.000E+05,0.300,400.,0.000E+00,0.000E+00
0.000E+00,0.000E+00,0.000E+00
*HOURGLASS
3,0,0.000E+00,0,0.000E+00,0.000E+00
*SECTION_SHELL
3,2,0.000E+00,0.000E+00,0.000E+00,0.000E+00,0
&thood,&thood,&thood,&thood,0.000E+00
*PART
material type # 3 (Kinematic/Isotropic Elastic-Plastic)                         
3,3,3,0,3,0
$
$ DEFINITION OF MATERIAL     4
$
*MAT_PLASTIC_KINEMATIC
4,7.800E-08,2.000E+05,0.300,400.,0.000E+00,0.000E+00
0.000E+00,0.000E+00,0.000E+00
*HOURGLASS
4,0,0.000E+00,0,0.000E+00,0.000E+00
*SECTION_SHELL
4,2,0.000E+00,0.000E+00,0.000E+00,0.000E+00,0
&tgrill,&tgrill,&tgrill,&tgrill,0.000E+00
*PART
material type # 3 (Kinematic/Isotropic Elastic-Plastic)                         
4,4,4,0,4,0
$
$ DEFINITION OF MATERIAL     5
$
*MAT_PLASTIC_KINEMATIC
5,7.800E-08,2.000E+05,0.300,400.,0.000E+00,0.000E+00
0.000E+00,0.000E+00,0.000E+00
*HOURGLASS
5,0,0.000E+00,0,0.000E+00,0.000E+00
*SECTION_SHELL
5,2,0.000E+00,0.000E+00,0.000E+00,0.000E+00,0
&trailf,&trailf,&trailf,&trailf,0.000E+00
*PART
material type # 3 (Kinematic/Isotropic Elastic-Plastic)                         
5,5,5,0,5,0
$
$ DEFINITION OF MATERIAL     6
$
*MAT_PLASTIC_KINEMATIC
6,7.800E-08,2.000E+05,0.300,400.,0.000E+00,0.000E+00
0.000E+00,0.000E+00,0.000E+00
*HOURGLASS
6,0,0.000E+00,0,0.000E+00,0.000E+00
*SECTION_SHELL
6,2,0.000E+00,0.000E+00,0.000E+00,0.000E+00,0
&trailb,&trailb,&trailb,&trailb,0.000E+00
*PART
material type # 3 (Kinematic/Isotropic Elastic-Plastic)                         
6,6,6,0,6,0
$
$ DEFINITION OF MATERIAL     7
$
*MAT_PLASTIC_KINEMATIC
7,7.800E-08,2.000E+05,0.300,400.,0.000E+00,0.000E+00
0.000E+00,0.000E+00,0.000E+00
*HOURGLASS
7,0,0.000E+00,0,0.000E+00,0.000E+00
*SECTION_SHELL
7,2,0.000E+00,0.000E+00,0.000E+00,0.000E+00,0
&troof,&troof,&troof,&troof,0.000E+00
*PART
material type # 3 (Kinematic/Isotropic Elastic-Plastic)                         
7,7,7,0,7,0
*END
