$# LS-DYNA Keyword file created by LS-PrePost(R) V4.8.30 - 20Apr2022
$# Created on Dec-8-2023 (10:35:40)
*KEYWORD
*TITLE
$#                                                                         title
LS-DYNA keyword deck by LS-PrePost
*CONTROL_ENERGY
$#    hgen      rwen    slnten     rylen     irgen     
         2         2         2         1         2
*CONTROL_TERMINATION
$#  endtim    endcyc     dtmin    endeng    endmas     nosol     
      0.08         0       0.0       0.0       0.0         0
*DATABASE_GLSTAT
$#      dt    binary      lcur     ioopt     
1.00000E-5         2         0         1
*DATABASE_MATSUM
$#      dt    binary      lcur     ioopt     
1.00000E-5         2         0         1
*DATABASE_NODOUT
$#      dt    binary      lcur     ioopt   option1   option2       
1.00000E-4         2         0         1       0.0         0
*DATABASE_RWFORC
$#      dt    binary      lcur     ioopt     
1.00000E-5         2         0         1
*DATABASE_BINARY_D3PLOT
$#      dt      lcdt      beam     npltc    psetid      
     0.001         0         0         0         0
$*DATABASE_BINARY_RUNRSF
$    1000.0         0         0         0         0
$
$ NODAL TIME HISTORY BLOCKS
$
*DATABASE_HISTORY_NODE
$#     id1       id2       id3       id4       id5       id6       id7       id8
       184       444       605         0         0         0         0         0
$
$ NODAL TIME HISTORY BLOCKS
$
*DATABASE_HISTORY_NODE
$#     id1       id2       id3       id4       id5       id6       id7       id8
       167       432         0         0         0         0         0         0
$
$ SLIDING INTERFACE DEFINITIONS
$
$
$ TrueGrid Sliding Interface #    2
$
*CONTACT_AUTOMATIC_SINGLE_SURFACE_ID
$#     cid                                                                 title
         1TrueGridSlidingInterface#2
$#    ssid      msid     sstyp     mstyp    sboxid    mboxid       spr       mpr
         1         0         2         0         0         0         0         0
$#      fs        fd        dc        vc       vdc    penchk        bt        dt
       0.0       0.0       0.0       0.0       0.0         0       0.0       0.0
$#     sfs       sfm       sst       mst      sfst      sfmt       fsf       vsf
       0.0       0.0       0.0       0.0       0.0       0.0       0.0       0.0
$#    soft    sofscl    lcidab    maxpar     sbopt     depth     bsort    frcfrq
         0       0.0         0       0.0       0.0         0         0         0
$#  penmax    thkopt    shlthk     snlog      isym     i2d3d    sldthk    sldstf
       0.0         0         0         0         0         0       0.0       0.0
*SET_PART_LIST
$#     sid       da1       da2       da3       da4    solver      
         1       0.0       0.0       0.0       0.0MECH
$#    pid1      pid2      pid3      pid4      pid5      pid6      pid7      pid8
         1         2         3         4         0         0         0         0
*PART
$#                                                                         title
Body
$#     pid     secid       mid     eosid      hgid      grav    adpopt      tmid
         1         1         1         0         1         0         0         0
*SECTION_SHELL
$#   secid    elform      shrf       nip     propt   qr/irid     icomp     setyp
         1         2       0.0         0       1.0         0         0         1
$#      t1        t2        t3        t4      nloc     marea      idof    edgset
       2.0       2.0       2.0       2.0       0.0       0.0       0.0         0
*MAT_PLASTIC_KINEMATIC
$#     mid        ro         e        pr      sigy      etan      beta    
         11.00000E-7  200000.0       0.3    &ybody       0.0       0.0
$#     src       srp        fs        vp  
       0.0       0.0       0.0       0.0
*HOURGLASS
$#    hgid       ihq        qm       ibq        q1        q2    qb/vdc        qw
         1         4      0.02         0       0.0       0.0       0.0       0.0
*PART
$#                                                                         title
Bumper
$#     pid     secid       mid     eosid      hgid      grav    adpopt      tmid
         2         2         2         0         2         0         0         0
*SECTION_SHELL
$#   secid    elform      shrf       nip     propt   qr/irid     icomp     setyp
         2         2       0.0         0       1.0         0         0         1
$#      t1        t2        t3        t4      nloc     marea      idof    edgset
&tbumper  &tbumper  &tbumper  &tbumper         0.0       0.0       0.0         0
*MAT_PLASTIC_KINEMATIC
$#     mid        ro         e        pr      sigy      etan      beta    
         27.80000E-8  200000.0       0.3  &ybumper       0.0       0.0
$#     src       srp        fs        vp  
       0.0       0.0       0.0       0.0
*HOURGLASS
$#    hgid       ihq        qm       ibq        q1        q2    qb/vdc        qw
         2         4      0.02         0       0.0       0.0       0.0       0.0
*PART
$#                                                                         title
Hood
$#     pid     secid       mid     eosid      hgid      grav    adpopt      tmid
         3         3         3         0         3         0         0         0
*SECTION_SHELL
$#   secid    elform      shrf       nip     propt   qr/irid     icomp     setyp
         3         2       0.0         0       1.0         0         0         1
$#      t1        t2        t3        t4      nloc     marea      idof    edgset
&thood    &thood    &thood    &thood           0.0       0.0       0.0         0
*MAT_PLASTIC_KINEMATIC
$#     mid        ro         e        pr      sigy      etan      beta    
         37.80000E-8  200000.0       0.3     400.0       0.0       0.0
$#     src       srp        fs        vp  
       0.0       0.0       0.0       0.0
*HOURGLASS
$#    hgid       ihq        qm       ibq        q1        q2    qb/vdc        qw
         3         4      0.02         0       0.0       0.0       0.0       0.0
*PART
$#                                                                         title
Grill
$#     pid     secid       mid     eosid      hgid      grav    adpopt      tmid
         4         4         4         0         4         0         0         0
*SECTION_SHELL
$#   secid    elform      shrf       nip     propt   qr/irid     icomp     setyp
         4         2       0.0         0       1.0         0         0         1
$#      t1        t2        t3        t4      nloc     marea      idof    edgset
&tgrill   &tgrill   &tgrill   &tgrill          0.0       0.0       0.0         0
*MAT_PLASTIC_KINEMATIC
$#     mid        ro         e        pr      sigy      etan      beta    
         47.80000E-8  200000.0       0.3     400.0       0.0       0.0
$#     src       srp        fs        vp  
       0.0       0.0       0.0       0.0
*HOURGLASS
$#    hgid       ihq        qm       ibq        q1        q2    qb/vdc        qw
         4         4      0.02         0       0.0       0.0       0.0       0.0
*PART
$#                                                                         title
Longeron (front)
$#     pid     secid       mid     eosid      hgid      grav    adpopt      tmid
         5         5         5         0         5         0         0         0
*SECTION_SHELL
$#   secid    elform      shrf       nip     propt   qr/irid     icomp     setyp
         5         2       0.0         0       1.0         0         0         1
$#      t1        t2        t3        t4      nloc     marea      idof    edgset
&trailf   &trailf   &trailf   &trailf          0.0       0.0       0.0         0
*MAT_PLASTIC_KINEMATIC
$#     mid        ro         e        pr      sigy      etan      beta    
         57.80000E-8  200000.0       0.3   &yrailf       0.0       0.0
$#     src       srp        fs        vp  
       0.0       0.0       0.0       0.0
*HOURGLASS
$#    hgid       ihq        qm       ibq        q1        q2    qb/vdc        qw
         5         4      0.02         0       0.0       0.0       0.0       0.0
*PART
$#                                                                         title
Longeron (rear)
$#     pid     secid       mid     eosid      hgid      grav    adpopt      tmid
         6         6         6         0         6         0         0         0
*SECTION_SHELL
$#   secid    elform      shrf       nip     propt   qr/irid     icomp     setyp
         6         2       0.0         0       1.0         0         0         1
$#      t1        t2        t3        t4      nloc     marea      idof    edgset
&trailb   &trailb   &trailb   &trailb          0.0       0.0       0.0         0
*MAT_PLASTIC_KINEMATIC
$#     mid        ro         e        pr      sigy      etan      beta    
         67.80000E-8  200000.0       0.3   &yrailb       0.0       0.0
$#     src       srp        fs        vp  
       0.0       0.0       0.0       0.0
*HOURGLASS
$#    hgid       ihq        qm       ibq        q1        q2    qb/vdc        qw
         6         4      0.02         0       0.0       0.0       0.0       0.0
*PART
$#                                                                         title
Roof
$#     pid     secid       mid     eosid      hgid      grav    adpopt      tmid
         7         7         7         0         7         0         0         0
*SECTION_SHELL
$#   secid    elform      shrf       nip     propt   qr/irid     icomp     setyp
         7         2       0.0         0       1.0         0         0         1
$#      t1        t2        t3        t4      nloc     marea      idof    edgset
         2         2         2         2       0.0       0.0       0.0         0
*MAT_PLASTIC_KINEMATIC
$#     mid        ro         e        pr      sigy      etan      beta    
         77.80000E-8  200000.0       0.3     400.0       0.0       0.0
$#     src       srp        fs        vp  
       0.0       0.0       0.0       0.0
*HOURGLASS
$#    hgid       ihq        qm       ibq        q1        q2    qb/vdc        qw
         7         4      0.02         0       0.0       0.0       0.0       0.0
$
$ INITIAL CONDITIONS
$
*INITIAL_VELOCITY_NODE
$#     nid        vx        vy        vz       vxr       vyr       vzr      icid
         1   -8333.0       0.0       0.0       0.0       0.0       0.0         0
         2   -8333.0       0.0       0.0       0.0       0.0       0.0         0
         3   -8333.0       0.0       0.0       0.0       0.0       0.0         0
         4   -8333.0       0.0       0.0       0.0       0.0       0.0         0
         5   -8333.0       0.0       0.0       0.0       0.0       0.0         0
         6   -8333.0       0.0       0.0       0.0       0.0       0.0         0
         7   -8333.0       0.0       0.0       0.0       0.0       0.0         0
         8   -8333.0       0.0       0.0       0.0       0.0       0.0         0
         9   -8333.0       0.0       0.0       0.0       0.0       0.0         0
        10   -8333.0       0.0       0.0       0.0       0.0       0.0         0
        11   -8333.0       0.0       0.0       0.0       0.0       0.0         0
        12   -8333.0       0.0       0.0       0.0       0.0       0.0         0
        13   -8333.0       0.0       0.0       0.0       0.0       0.0         0
        14   -8333.0       0.0       0.0       0.0       0.0       0.0         0
        15   -8333.0       0.0       0.0       0.0       0.0       0.0         0
        16   -8333.0       0.0       0.0       0.0       0.0       0.0         0
        17   -8333.0       0.0       0.0       0.0       0.0       0.0         0
        18   -8333.0       0.0       0.0       0.0       0.0       0.0         0
        19   -8333.0       0.0       0.0       0.0       0.0       0.0         0
        20   -8333.0       0.0       0.0       0.0       0.0       0.0         0
$ ... 738 like lines cut
*CONSTRAINED_GENERALIZED_WELD_SPOT
$#    nsid       cid    filter    window       npr      nprt    
         4         0         0       0.0         0         0
$#   tfail      epsf        sn        ss         n         m 
1.00000E20       0.0       0.0       0.0       0.0       0.0
*SET_NODE_LIST
$#     sid       da1       da2       da3       da4    solver      
         4       0.0       0.0       0.0       0.0MECH
$#    nid1      nid2      nid3      nid4      nid5      nid6      nid7      nid8
       474       751         0         0         0         0         0         0
*CONSTRAINED_GENERALIZED_WELD_SPOT
         5         0         0       0.0         0         0
1.00000E20       0.0       0.0       0.0       0.0       0.0
*SET_NODE_LIST
         5       0.0       0.0       0.0       0.0MECH
       703       338         0         0         0         0         0         0
*CONSTRAINED_GENERALIZED_WELD_SPOT
         6         0         0       0.0         0         0
1.00000E20       0.0       0.0       0.0       0.0       0.0
*SET_NODE_LIST
         6       0.0       0.0       0.0       0.0MECH
       186       707         0         0         0         0         0         0
$
$ ELEMENT CARDS FOR SHELL ELEMENTS
$
*ELEMENT_SHELL_THICKNESS
$#   eid     pid      n1      n2      n3      n4      n5      n6      n7      n8
       1       2       1    1769    1773    1772       0       0       0       0
$#         thic1           thic2           thic3           thic4            beta
             0.0             0.0             0.0             0.0             0.0
       2       2       2    1771    1777    1776       0       0       0       0
             0.0             0.0             0.0             0.0             0.0
       3       2       1    1772    1781    1780       0       0       0       0
             0.0             0.0             0.0             0.0             0.0
       4       2       7    1779    1785    1784       0       0       0       0
             0.0             0.0             0.0             0.0             0.0
       5       2       2    1776    1788    1778       0       0       0       0
             0.0             0.0             0.0             0.0             0.0
       6       2       8    1787    1791    1782       0       0       0       0
             0.0             0.0             0.0             0.0             0.0
       7       2       1    1780    1794    1769       0       0       0       0
             0.0             0.0             0.0             0.0             0.0
       8       2       7    1784    1797    1792       0       0       0       0
             0.0             0.0             0.0             0.0             0.0
       9       2       3    1775    1801    1800       0       0       0       0
             0.0             0.0             0.0             0.0             0.0
      10       2       3    1800    1804    1786       0       0       0       0
             0.0             0.0             0.0             0.0             0.0
      11       2       9    1803    1807    1789       0       0       0       0
$ ... 4827 like lines cut
$
$ NODES
$
*NODE
$#   nid               x               y               z      tc      rc  
       1             0.0             0.0             0.0       0       0
       2             0.0             0.0        68.94678       0       0
       3             0.0             0.0        137.8936       0       0
       4             0.0         174.625             0.0       0       0
       5             0.0         174.625            42.5       0       0
       6             0.0         174.625            85.0       0       0
       7        56.25935             0.0             0.0       0       0
       8        56.25935             0.0        68.94678       0       0
       9        56.25935             0.0        137.8936       0       0
      10        112.5187             0.0             0.0       0       0
      11        112.5187             0.0        68.94678       0       0
      12        112.5187             0.0        137.8936       0       0
      13        56.25935         174.625             0.0       0       0
      14        112.5187         174.625             0.0       0       0
      15             0.0             0.0        206.8403       0       0
      16             0.0         174.625        206.8403       0       0
      17        56.25935             0.0        206.8403       0       0
      18        112.5187             0.0        206.8403       0       0
      19        56.25935         174.625        206.8403       0       0
      20        112.5187         174.625        206.8403       0       0
$ ... 2358 like lines cut
*RIGIDWALL_PLANAR_ID
$#      id                                                                 title
         1ground
$#    nsid    nsidex     boxid    offset     birth     death     rwksf     
         1         0         0       0.0       0.0       0.0       0.0
$#      xt        yt        zt        xh        yh        zh      fric      wvel
       0.0       0.0       0.0       0.0       0.0       1.0       0.2       0.0
*RIGIDWALL_GEOMETRIC_CYLINDER_DISPLAY_ID
$#      id                                                                 title
         2post
$#    nsid    nsidex     boxid     birth     death     
         2         0         0       0.0       0.0
$#      xt        yt        zt        xh        yh        zh      fric    
    -203.0   1187.31    1500.0    -203.0   1187.31    1600.0       0.0
$#  radcyl    lencyl     nsegs     
     177.0       0.0         0
$
$ RIGID WALL CARDS
$
*SENSOR_DEFINE_FORCE
$#  sensid     ftype    typeid       vid       crd   
         1RWALL              2X                  0
*SET_NODE_LIST
$#     sid       da1       da2       da3       da4    solver      
         1       0.0       0.0       0.0       0.0MECH
$#    nid1      nid2      nid3      nid4      nid5      nid6      nid7      nid8
         1         4        21        24        37        40        43        46
        49        52        85        88       101         7        13        27
        28        55        56        57        58        59        60        91
        92       104        10        14        29        30        61        62
        63        64        65        66        93        94       105       115
       209       118       212       121       215       124       218       127
       262       324       325       358       359       360       361       362
       363       460       461       221       244       263       326       327
       364       365       366       367       368       369       462       463
       494       247       264       328       329       370       371       372
       373       374       375       464       465       495       250       265
       330       331       376       377       378       379       380       381
       466       467       496       253       266       332       333       382
       383       384       385       386       387       468       469       497
       256       267       334       335       388       389       390       391
       392       393       470       471       498       259       268       336
       337       394       395       396       397       398       399       472
       473       499       557       560       569       570       579       580
       581       582       583       584       609       610       619         0
$
$ Node set 2
$
*SET_NODE_LIST
$#     sid       da1       da2       da3       da4    solver      
         2       0.0       0.0       0.0       0.0MECH
$#    nid1      nid2      nid3      nid4      nid5      nid6      nid7      nid8
        18        20        35        36        79        80        81        82
        83        84        99       100       108       135       138       160
       163       178       181       184       187       190       193       200
       203       206       136       139       161       164       179       182
       185       188       191       194       201       204       207       137
       140       162       165       180       183       186       189       192
       195       202       205       208        15        17        16        19
        31        33        32        34        67        73        68        74
        69        75        70        76        71        77        72        78
        95        97        96        98       106       107         1         4
        21        24        37        40        43        46        49        52
        85        88       101         2         5        22        25        38
        41        44        47        50        53        86        89       102
         3         6        23        26        39        42        45        48
        51        54        87        90       103         7        10        13
        14        27        29        28        30        55        61        56
        62        57        63        58        64        59        65        60
        66        91        93        92        94       104       105       681
       143       146       149       689       691       682       684       686
       688       690       692       693       695       697       699       701
$ ... 8 like lines cut
$
$ Node set 3
$
*SET_NODE_LIST
$#     sid       da1       da2       da3       da4    solver      
         3       0.0       0.0       0.0       0.0MECH
$#    nid1      nid2      nid3      nid4      nid5      nid6      nid7      nid8
       184       444         0         0         0         0         0         0
*END
