$# LS-DYNA Keyword file created by LS-PREPOST 2.2 - 09Feb2008(16:59)
$# Created on Oct-28-2013 (10:40:31)
*KEYWORD
*TITLE
$# title
LS-DYNA keyword deck by LS-Prepost                                              
*CONTROL_TERMINATION
$#  endtim    endcyc     dtmin    endeng    endmas
  0.050000
*DATABASE_NODOUT
$#      dt    binary      lcur     ioopt      dthf     binhf
 1.0000E-4         3
*DATABASE_RWFORC
$#      dt    binary      lcur     ioopt
 1.0000E-5         3
*DATABASE_BINARY_D3PLOT
$#      dt      lcdt      beam     npltc
  0.001000
$#   ioopt
         0
*DATABASE_BINARY_RUNRSF
$#    cycl  not used  not used  not used
      1000
*DATABASE_HISTORY_NODE
$#     id1       id2       id3       id4       id5       id6       id7       id8
       167       432
*CONTACT_SINGLE_SURFACE_ID
$#     cid                                                                 title
         1TrueGrid                                                              
$#    ssid      msid     sstyp     mstyp    sboxid    mboxid       spr       mpr
         2         0         3
$#      fs        fd        dc        vc       vdc    penchk        bt        dt
     0.000     0.000     0.000     0.000     0.000         0     0.000     0.000
$#     sfs       sfm       sst       mst      sfst      sfmt       fsf       vsf
     0.000     0.000     0.000     0.000     0.000     0.000     0.000     0.000
$#    soft    sofscl    lcidab    maxpar     sbopt     depth     bsort    frcfrq
         0     0.000         0     0.000     0.000         0         0         0
$#  penmax    thkopt    shlthk     snlog      isym     i2d3d    sldthk    sldstf
     0.000         0         0         0         0         0     0.000     0.000
*CONTACT_SINGLE_SURFACE_ID
$#     cid                                                                 title
         2TrueGrid                                                              
$#    ssid      msid     sstyp     mstyp    sboxid    mboxid       spr       mpr
         1         0         3
$#      fs        fd        dc        vc       vdc    penchk        bt        dt
     0.000     0.000     0.000     0.000     0.000         0     0.000     0.000
$#     sfs       sfm       sst       mst      sfst      sfmt       fsf       vsf
     0.000     0.000     0.000     0.000     0.000     0.000     0.000     0.000
$#    soft    sofscl    lcidab    maxpar     sbopt     depth     bsort    frcfrq
         0     0.000         0     0.000     0.000         0         0         0
$#  penmax    thkopt    shlthk     snlog      isym     i2d3d    sldthk    sldstf
     0.000         0         0         0         0         0     0.000     0.000
*PART
$# title
material type # 3 (Kinematic/Isotropic Elastic-Plastic)                         
$#     pid     secid       mid     eosid      hgid      grav    adpopt      tmid
         1         1         1         0         1
*SECTION_SHELL
$#   secid    elform      shrf       nip     propt   qr/irid     icomp     setyp
         1         2
$#      t1        t2        t3        t4      nloc     marea      idof    edgset
  2.000000  2.000000  2.000000  2.000000
*MAT_PLASTIC_KINEMATIC
$#     mid        ro         e        pr      sigy      etan      beta
         1 1.0000E-7 2.0000E+5  0.300000 400.00000
$#     src       srp        fs        vp
     0.000     0.000     0.000     0.000
*HOURGLASS
$#    hgid       ihq        qm       ibq        q1        q2    qb/vdc        qw
         1
*PART
$# title
material type # 3 (Kinematic/Isotropic Elastic-Plastic)                         
$#     pid     secid       mid     eosid      hgid      grav    adpopt      tmid
         2         2         2         0         2
*SECTION_SHELL
$#   secid    elform      shrf       nip     propt   qr/irid     icomp     setyp
         2         2
$#      t1        t2        t3        t4      nloc     marea      idof    edgset
$    0.000     0.000     0.000     0.000     0.000     0.000     0.000         0
&tbumper,&tbumper,&tbumper,&tbumper
*MAT_PLASTIC_KINEMATIC
$#     mid        ro         e        pr      sigy      etan      beta
         2 7.8000E-8 2.0000E+5  0.300000 400.00000
$#     src       srp        fs        vp
     0.000     0.000     0.000     0.000
*HOURGLASS
$#    hgid       ihq        qm       ibq        q1        q2    qb/vdc        qw
         2
*PART
$# title
material type # 3 (Kinematic/Isotropic Elastic-Plastic)                         
$#     pid     secid       mid     eosid      hgid      grav    adpopt      tmid
         3         3         3         0         3
*SECTION_SHELL
$#   secid    elform      shrf       nip     propt   qr/irid     icomp     setyp
         3         2
$#      t1        t2        t3        t4      nloc     marea      idof    edgset
$    0.000     0.000     0.000     0.000     0.000     0.000     0.000         0
&thood,&thood,&thood,&thood
*MAT_PLASTIC_KINEMATIC
$#     mid        ro         e        pr      sigy      etan      beta
         3 7.8000E-8 2.0000E+5  0.300000 400.00000
$#     src       srp        fs        vp
     0.000     0.000     0.000     0.000
*HOURGLASS
$#    hgid       ihq        qm       ibq        q1        q2    qb/vdc        qw
         3
*PART
$# title
material type # 3 (Kinematic/Isotropic Elastic-Plastic)                         
$#     pid     secid       mid     eosid      hgid      grav    adpopt      tmid
         4         4         4         0         4
*SECTION_SHELL
$#   secid    elform      shrf       nip     propt   qr/irid     icomp     setyp
         4         2
$#      t1        t2        t3        t4      nloc     marea      idof    edgset
$    0.000     0.000     0.000     0.000     0.000     0.000     0.000         0
&thood,&thood,&thood,&thood
*MAT_PLASTIC_KINEMATIC
$#     mid        ro         e        pr      sigy      etan      beta
         4 7.8000E-8 2.0000E+5  0.300000 400.00000
$#     src       srp        fs        vp
     0.000     0.000     0.000     0.000
*HOURGLASS
$#    hgid       ihq        qm       ibq        q1        q2    qb/vdc        qw
         4
*PART
$# title
material type # 3 (Kinematic/Isotropic Elastic-Plastic)                         
$#     pid     secid       mid     eosid      hgid      grav    adpopt      tmid
         5         5         5         0         5
*SECTION_SHELL
$#   secid    elform      shrf       nip     propt   qr/irid     icomp     setyp
         5         2
$#      t1        t2        t3        t4      nloc     marea      idof    edgset
$    0.000     0.000     0.000     0.000     0.000     0.000     0.000         0
&thood,&thood,&thood,&thood
*MAT_PLASTIC_KINEMATIC
$#     mid        ro         e        pr      sigy      etan      beta
         5 7.8000E-8 2.0000E+5  0.300000 400.00000
$#     src       srp        fs        vp
     0.000     0.000     0.000     0.000
*HOURGLASS
$#    hgid       ihq        qm       ibq        q1        q2    qb/vdc        qw
         5
*PART
$# title
material type # 20 (Rigid)                                                      
$#     pid     secid       mid     eosid      hgid      grav    adpopt      tmid
         6         6         6         0         6
*SECTION_SHELL
$#   secid    elform      shrf       nip     propt   qr/irid     icomp     setyp
         6         2
$#      t1        t2        t3        t4      nloc     marea      idof    edgset
     0.000     0.000     0.000     0.000     0.000     0.000     0.000         0
*MAT_RIGID
$#     mid        ro         e        pr         n    couple         m     alias
         6 7.8000E-8 2.0000E+5  0.300000     0.000     0.000     0.000          
$#     cmo      con1      con2
  1.000000         7         7
$#lco or a1       a2        a3        v1        v2        v3
     0.000     0.000     0.000     0.000     0.000     0.000
*HOURGLASS
$#    hgid       ihq        qm       ibq        q1        q2    qb/vdc        qw
         6
*RIGIDWALL_PLANAR
$#    nsid    nsidex     boxid    offset     birth     death     rwksf
         1
$#      xt        yt        zt        xh        yh        zh      fric      wvel
     0.000     0.000     0.000     0.000  1.000000     0.000  0.200000
*RIGIDWALL_GEOMETRIC_CYLINDER
$#    nsid    nsidex     boxid     birth     death
         2
$#      xt        yt        zt        xh        yh        zh      fric
-203.00000 660.00000 1500.0000-203.00000 660.00000 1600.0000
$#  radcyl    lencyl
 177.00000
*INITIAL_VELOCITY_NODE
$#     nid        vx        vy        vz       vxr       vyr       vzr
         1-15640.000
         2-15640.000
         3-15640.000
         4-15640.000
         5-15640.000
         6-15640.000
         7-15640.000
         8-15640.000
         9-15640.000
        10-15640.000
        11-15640.000
        12-15640.000
        13-15640.000
        14-15640.000
        15-15640.000
        16-15640.000
        17-15640.000
        18-15640.000
        19-15640.000
        20-15640.000
$ ... 556 like lines cut
*SET_NODE_LIST
$#     sid       da1       da2       da3       da4
         1
$#    nid1      nid2      nid3      nid4      nid5      nid6      nid7      nid8
         1         5         9        13        17        21        25        29
        33        37        45        46        47        48        49        50
        51        52        41        53        54        55        56        57
        58        59        60        95       115       116       117       118
       119       120       121       122        99       123       124       125
       126       127       128       129       130       103       131       132
       133       134       135       136       137       138       107       139
       140       141       142       143       144       145       146       111
       147       148       149       150       151       152       153       154
       262       286       287       288       289       290       291       292
       293       266       294       295       296       297       298       299
       300       301       270       302       303       304       305       306
       307       308       309       274       310       311       312       313
       314       315       316       317       278       318       319       320
       321       322       323       324       325       282       326       327
       328       329       330       331       332       333       493       497
       498       499       500       501       502       503       504
*SET_NODE_LIST
$#     sid       da1       da2       da3       da4
         2
$#    nid1      nid2      nid3      nid4      nid5      nid6      nid7      nid8
         1        37        41        95        99       103       107       111
         5        45        53       115       123       131       139       147
         9        46        54       116       124       132       140       148
        13        47        55       117       125       133       141       149
        17        48        56       118       126       134       142       150
        21        49        57       119       127       135       143       151
        25        50        58       120       128       136       144       152
        29        51        59       121       129       137       145       153
        33        52        60       122       130       138       146       154
         2         6        10        14        18        22        26        30
        34         3         7        11        15        19        23        27
        31        35         4         8        12        16        20        24
        28        32        36        40        44        61        69        62
        70        63        71        64        72        65        73        66
        74        67        75        68        76       155       158       161
       164       167       170       173       176       179       156       159
       162       165       168       171       174       177       180       157
       160       163       166       169       172       175       178       181
       184       187       190       193       196       197       205       213
       221       229       198       206       214       222       230       199
$ ... 7 like lines cut
*SET_NODE_LIST
$#     sid       da1       da2       da3       da4
         3
$#    nid1      nid2      nid3      nid4      nid5      nid6      nid7      nid8
       167       432
*ELEMENT_SHELL_THICKNESS
$#   eid     pid      n1      n2      n3      n4      n5      n6      n7      n8
       1       2       1       5       6       2
$#         thic1           thic2           thic3           thic4             psi
           0.000           0.000           0.000           0.000           0.000
       2       2       5       9      10       6
           0.000           0.000           0.000           0.000           0.000
       3       2       9      13      14      10
           0.000           0.000           0.000           0.000           0.000
       4       2      13      17      18      14
           0.000           0.000           0.000           0.000           0.000
       5       2      17      21      22      18
           0.000           0.000           0.000           0.000           0.000
       6       2      21      25      26      22
           0.000           0.000           0.000           0.000           0.000
       7       2      25      29      30      26
           0.000           0.000           0.000           0.000           0.000
       8       2      29      33      34      30
           0.000           0.000           0.000           0.000           0.000
       9       2       2       6       7       3
           0.000           0.000           0.000           0.000           0.000
      10       2       6      10      11       7
           0.000           0.000           0.000           0.000           0.000
      11       2      10      14      15      11
$ ... 2327 like lines cut
*NODE
$#   nid               x               y               z      tc      rc
       1
       2           0.000           0.000      68.9467773
       3           0.000           0.000     137.8935547
       4           0.000           0.000     206.8403320
       5           0.000     236.6192474
       6           0.000     236.6192474      68.9467773
       7           0.000     236.6192474     137.8935547
       8           0.000     236.6192474     206.8403320
       9           0.000     425.9146423
      10           0.000     425.9146423      68.9467773
      11           0.000     425.9146423     137.8935547
      12           0.000     425.9146423     206.8403320
      13           0.000     577.3509521
      14           0.000     577.3509521      68.9467773
      15           0.000     577.3509521     137.8935547
      16           0.000     577.3509521     206.8403320
      17           0.000     698.5000000
      18           0.000     698.5000000      68.9467773
      19           0.000     698.5000000     137.8935547
      20           0.000     698.5000000     206.8403320
$ ... 1216 like lines cut
*END
